Version 4
SHEET 1 1180 952
WIRE -304 112 -336 112
WIRE -288 112 -304 112
WIRE -128 112 -160 112
WIRE -112 112 -128 112
WIRE -336 128 -336 112
WIRE -160 128 -160 112
WIRE 320 144 304 144
WIRE 544 144 528 144
WIRE 320 176 304 176
WIRE 544 176 528 176
WIRE 320 208 304 208
WIRE 544 208 528 208
WIRE -336 224 -336 208
WIRE -160 224 -160 208
WIRE 320 240 304 240
WIRE 544 256 528 256
WIRE 544 288 528 288
WIRE -304 304 -336 304
WIRE -288 304 -304 304
WIRE -128 304 -160 304
WIRE -112 304 -128 304
WIRE -336 320 -336 304
WIRE -160 320 -160 304
WIRE 544 320 528 320
WIRE -336 416 -336 400
WIRE -160 416 -160 400
WIRE -144 480 -272 480
WIRE 0 480 -64 480
WIRE 48 480 0 480
WIRE 96 480 48 480
WIRE -272 496 -272 480
WIRE 480 496 448 496
WIRE 512 496 480 496
WIRE 624 496 592 496
WIRE 0 512 0 480
WIRE 800 528 736 528
WIRE 816 528 800 528
WIRE 816 560 816 528
WIRE 96 576 96 544
WIRE 480 592 448 592
WIRE 624 592 480 592
WIRE 0 608 0 592
WIRE 0 608 -192 608
WIRE 160 608 0 608
WIRE -192 640 -192 608
WIRE 160 640 160 608
WIRE 816 656 816 640
WIRE -240 720 -288 720
WIRE 256 720 208 720
WIRE -192 752 -192 736
WIRE -80 752 -192 752
WIRE 160 752 160 736
WIRE 160 752 112 752
WIRE -192 768 -192 752
WIRE 160 768 160 752
WIRE -240 848 -288 848
WIRE 256 848 208 848
WIRE -192 896 -192 864
WIRE -16 896 -192 896
WIRE 160 896 160 864
WIRE 160 896 -16 896
WIRE -16 912 -16 896
FLAG -304 112 Vduty
FLAG -336 224 0
FLAG 304 144 Vduty
FLAG 304 176 Vdir
FLAG 304 208 Vbrake
FLAG 304 240 Vmode
FLAG 544 176 M+
FLAG 544 288 M-
FLAG -128 112 Vdir
FLAG -160 224 0
FLAG -304 304 Vbrake
FLAG -336 416 0
FLAG -128 304 Vmode
FLAG -160 416 0
FLAG 112 752 M-
FLAG -16 912 0
FLAG -272 576 0
FLAG 816 656 0
FLAG 800 528 Velocity
FLAG -288 720 HO1
FLAG -288 848 LO1
FLAG 256 720 HO2
FLAG 256 848 LO2
FLAG 544 144 HO1
FLAG 544 208 LO1
FLAG 544 256 HO2
FLAG 544 320 LO2
FLAG 96 576 0
FLAG 48 480 Vbus
FLAG -80 752 M+
FLAG 480 496 M+
FLAG 480 592 M-
SYMBOL voltage -336 112 R0
WINDOW 123 0 0 Left 2
WINDOW 39 0 0 Left 2
WINDOW 3 -136 147 Left 2
SYMATTR Value PWL(0 0.75 100ms 0.95 100.001ms 0.15)
SYMATTR InstName Vduty
SYMBOL voltage -160 112 R0
WINDOW 123 0 0 Left 2
WINDOW 39 0 0 Left 2
SYMATTR InstName Vdir
SYMATTR Value 0
SYMBOL voltage -160 304 R0
WINDOW 123 0 0 Left 2
WINDOW 39 0 0 Left 2
SYMATTR InstName Vmode
SYMATTR Value 1
SYMBOL voltage -336 304 R0
WINDOW 123 0 0 Left 2
WINDOW 39 0 0 Left 2
WINDOW 3 -47 94 Left 2
SYMATTR Value 0
SYMATTR InstName Vbrake
SYMBOL nmos -240 640 R0
WINDOW 3 59 59 Left 2
SYMATTR Value IPP100N08N3
SYMATTR InstName M1
SYMBOL nmos -240 768 R0
SYMATTR InstName M2
SYMATTR Value IPP100N08N3
SYMBOL nmos 208 640 M0
SYMATTR InstName M3
SYMATTR Value IPP100N08N3
SYMBOL nmos 208 768 M0
SYMATTR InstName M4
SYMATTR Value IPP100N08N3
SYMBOL voltage -272 480 R0
WINDOW 123 0 0 Left 2
WINDOW 39 0 0 Left 2
SYMATTR InstName V1
SYMATTR Value 24
SYMBOL DC_motor_model 672 544 R0
SYMATTR InstName X2
SYMBOL current 816 560 R0
WINDOW 123 0 0 Left 2
WINDOW 39 0 0 Left 2
SYMATTR InstName I1
SYMATTR Value 0.01
SYMBOL res 608 480 R90
WINDOW 0 0 56 VBottom 2
WINDOW 3 32 56 VTop 2
SYMATTR InstName Motor
SYMATTR Value 1µ
SYMBOL GateDriver 432 224 R0
SYMATTR InstName X1
SYMBOL cap 80 480 R0
SYMATTR InstName C1
SYMATTR Value 1mF
SYMATTR SpiceLine Rser=5m
SYMBOL ind -48 464 R90
WINDOW 0 5 56 VBottom 2
WINDOW 3 32 56 VTop 2
SYMATTR InstName L1
SYMATTR Value 1µH
SYMATTR SpiceLine Rser=10m
SYMBOL res -16 496 R0
SYMATTR InstName R1
SYMATTR Value 1µ
TEXT 8 112 Left 2 !.tran 0.2
TEXT -800 184 Left 2 ;PWL(0 0.9 0.2 0.9 0.2001 0.1)
TEXT -928 464 Left 2 !.model D_ideal D(Ron=0.1n Roff=1G Vfwd=0.1)
