Version 4
SHEET 1 1348 680
WIRE -64 -112 -352 -112
WIRE -48 -112 -64 -112
WIRE -128 -48 -176 -48
WIRE 0 -48 -64 -48
WIRE 384 -16 352 -16
WIRE 496 -16 464 -16
WIRE -48 0 -48 -112
WIRE -176 16 -176 -48
WIRE -80 16 -176 16
WIRE -496 32 -528 32
WIRE -176 32 -176 16
WIRE 0 32 0 -48
WIRE 0 32 -16 32
WIRE 16 32 0 32
WIRE 112 32 96 32
WIRE 352 32 352 -16
WIRE 384 32 352 32
WIRE 496 32 496 -16
WIRE 496 32 448 32
WIRE -496 48 -496 32
WIRE -288 48 -416 48
WIRE -80 48 -112 48
WIRE 112 64 112 32
WIRE 128 64 112 64
WIRE -112 80 -112 48
WIRE -48 80 -48 64
WIRE 432 80 416 80
WIRE -352 96 -352 -112
WIRE 128 96 80 96
WIRE -416 112 -416 48
WIRE -384 112 -416 112
WIRE 432 112 432 80
WIRE -288 128 -288 48
WIRE -288 128 -320 128
WIRE -272 128 -288 128
WIRE -176 128 -176 112
WIRE -176 128 -192 128
WIRE 128 128 -176 128
WIRE 352 128 352 32
WIRE 352 128 320 128
WIRE 400 128 352 128
WIRE -496 144 -496 128
WIRE -384 144 -496 144
WIRE 496 144 496 32
WIRE 496 144 464 144
WIRE 560 144 496 144
WIRE 656 144 640 144
WIRE 720 144 656 144
WIRE -496 160 -496 144
WIRE 128 160 96 160
WIRE 352 160 320 160
WIRE 400 160 352 160
WIRE -352 176 -352 160
WIRE 96 176 96 160
WIRE 656 176 656 144
WIRE 352 192 352 160
WIRE 432 192 432 176
WIRE -272 240 -288 240
WIRE -496 256 -496 240
WIRE 656 256 656 240
WIRE 320 272 304 272
WIRE -288 288 -288 240
WIRE -48 288 -80 288
WIRE 96 288 80 288
WIRE 112 288 96 288
WIRE -80 320 -80 288
WIRE 80 320 80 288
WIRE 304 320 304 272
WIRE -288 400 -288 368
WIRE 304 416 304 400
WIRE -80 432 -80 400
WIRE -80 432 -128 432
WIRE 80 432 80 400
WIRE -128 448 -128 432
WIRE -288 512 -288 480
FLAG 96 176 0
FLAG -528 32 Vin
FLAG -64 -112 10V
FLAG 720 144 Vout
FLAG 416 80 Vcc2
FLAG 304 416 0
FLAG 320 272 Vcc2
FLAG -48 288 Vcc
FLAG -288 512 0
FLAG -272 240 Vin
FLAG -128 448 0
FLAG -112 80 0
FLAG 352 192 0
FLAG -48 80 0
FLAG 432 192 0
FLAG 80 432 0
FLAG 96 288 10V
FLAG 80 96 VCC
FLAG 656 256 0
FLAG -352 176 0
FLAG -496 256 0
SYMBOL AutoGenerated\\CNR200 224 96 R0
SYMATTR InstName U1
SYMBOL res 112 16 R90
WINDOW 0 0 56 VBottom 2
WINDOW 3 32 56 VTop 2
SYMATTR InstName R1
SYMATTR Value 470
SYMBOL Opamps\\UniversalOpamp2 -48 32 R0
SYMATTR InstName U2
SYMATTR Value2 Avol=1Meg GBW=1Meg Slew=0.6Meg
SYMATTR SpiceLine ilimit=25m rail=0 Vos=0 phimargin=90
SYMBOL Opamps\\UniversalOpamp2 432 144 R0
SYMATTR InstName U3
SYMBOL res -288 144 R270
WINDOW 0 32 56 VTop 2
WINDOW 3 0 56 VBottom 2
SYMATTR InstName R2
SYMATTR Value 120k
SYMBOL res 480 -32 R90
WINDOW 0 -4 90 VBottom 2
WINDOW 3 -29 43 VTop 2
SYMATTR InstName R3
SYMATTR Value 51k
SYMBOL voltage -80 304 R0
WINDOW 123 0 0 Left 2
WINDOW 39 0 0 Left 2
SYMATTR InstName V1
SYMATTR Value 11.5
SYMBOL voltage 304 304 R0
WINDOW 123 0 0 Left 2
WINDOW 39 0 0 Left 2
SYMATTR InstName V2
SYMATTR Value 3.3
SYMBOL voltage -288 272 R0
WINDOW 123 30 86 Left 2
WINDOW 39 0 0 Left 2
SYMATTR Value2 AC 1
SYMATTR InstName V3
SYMATTR Value ""
SYMBOL voltage 80 304 R0
WINDOW 123 0 0 Left 2
WINDOW 39 0 0 Left 2
SYMATTR InstName V4
SYMATTR Value 10
SYMBOL voltage -288 384 R0
WINDOW 123 0 0 Left 2
WINDOW 39 0 0 Left 2
SYMATTR InstName V5
SYMATTR Value 0
SYMBOL cap 448 16 R90
WINDOW 0 0 32 VBottom 2
WINDOW 3 32 32 VTop 2
SYMATTR InstName C2
SYMATTR Value 10p
SYMBOL cap -64 -64 R90
WINDOW 0 0 32 VBottom 2
WINDOW 3 32 32 VTop 2
SYMATTR InstName C1
SYMATTR Value 10p
SYMBOL voltage -176 16 R0
WINDOW 0 -14 11 Right 2
WINDOW 123 0 0 Left 2
WINDOW 39 0 0 Left 2
SYMATTR InstName Voffset
SYMATTR Value 6m
SYMBOL res 656 128 R90
WINDOW 0 0 56 VBottom 2
WINDOW 3 32 56 VTop 2
SYMATTR InstName R4
SYMATTR Value 47
SYMBOL cap 640 176 R0
SYMATTR InstName C3
SYMATTR Value 47n
SYMBOL Opamps\\UniversalOpamp2 -352 128 R0
SYMATTR InstName U4
SYMATTR Value2 Avol=1Meg GBW=1Meg Slew=0.6Meg
SYMATTR SpiceLine ilimit=25m rail=0 Vos=0 phimargin=90
SYMBOL res -512 32 R0
SYMATTR InstName R5
SYMATTR Value 18k
SYMBOL res -512 144 R0
SYMATTR InstName R6
SYMATTR Value 2k
TEXT 824 64 Left 2 !.dc V3 1 75 0.1
TEXT 832 32 Left 2 ;.ac dec 100 1 10Meg
TEXT 832 112 Left 2 ;Vout = Vin * K3 * R3 / R2\nK3 ~= 1
TEXT 832 168 Left 2 !.param A = 0.0425
TEXT 840 200 Left 2 ;normalize V(vout) to 0dB: V(vout)*6700
