Version 4
SHEET 1 1480 680
WIRE 48 -128 -224 -128
WIRE 208 -128 128 -128
WIRE 288 -128 208 -128
WIRE 432 -128 352 -128
WIRE 512 -128 432 -128
WIRE 688 -128 512 -128
WIRE 752 -128 688 -128
WIRE 896 -128 832 -128
WIRE 1008 -128 896 -128
WIRE 896 -96 896 -128
WIRE 432 -80 432 -128
WIRE 512 -80 512 -128
WIRE 688 -80 688 -128
WIRE 208 -48 208 -128
WIRE 32 16 -96 16
WIRE 432 16 432 -16
WIRE 432 16 368 16
WIRE 512 16 512 0
WIRE 512 16 432 16
WIRE 576 16 512 16
WIRE 688 16 688 -16
WIRE 688 16 656 16
WIRE 688 32 688 16
WIRE 896 32 896 -16
WIRE 432 80 368 80
WIRE 1008 96 1008 -128
WIRE -224 144 -224 -128
WIRE -224 144 -304 144
WIRE 32 144 -224 144
WIRE 432 144 432 80
WIRE 432 144 368 144
WIRE 528 144 432 144
WIRE 656 144 528 144
WIRE 656 160 656 144
WIRE -304 192 -304 144
WIRE 432 208 368 208
WIRE 528 208 432 208
WIRE 432 224 432 208
WIRE -304 272 -304 256
WIRE -224 272 -224 144
WIRE -192 272 -224 272
WIRE -96 272 -96 16
WIRE -96 272 -112 272
WIRE 0 272 -96 272
WIRE 32 272 0 272
WIRE 592 272 368 272
WIRE 656 272 656 240
WIRE 656 272 592 272
WIRE -96 288 -96 272
WIRE 656 304 656 272
WIRE 592 320 592 272
WIRE 112 352 112 336
WIRE -96 368 -96 352
WIRE -224 416 -224 272
WIRE 176 416 -224 416
WIRE 288 416 288 336
WIRE 288 416 256 416
WIRE 304 416 288 416
WIRE 416 416 368 416
WIRE 448 416 416 416
WIRE 560 416 528 416
WIRE 592 416 592 384
WIRE 592 416 560 416
WIRE 656 416 656 384
WIRE 656 416 592 416
WIRE 720 416 656 416
WIRE 896 416 720 416
WIRE 1008 416 1008 160
WIRE 1008 416 896 416
WIRE 896 432 896 416
WIRE -224 448 -224 416
WIRE 416 448 416 416
WIRE 560 448 560 416
WIRE 416 528 416 512
WIRE 560 528 560 512
WIRE 896 528 896 512
WIRE -224 544 -224 528
FLAG 688 -128 +12V
FLAG 688 32 0
FLAG 416 528 0
FLAG 560 528 0
FLAG 432 224 0
FLAG 720 416 -12V
FLAG -224 544 0
FLAG 112 352 0
FLAG -304 272 0
FLAG 896 32 0
FLAG 896 528 0
FLAG -96 368 0
FLAG 0 272 SHDN
SYMBOL PowerProducts\\LT3471 208 144 R0
SYMATTR InstName U1
SYMBOL ind 32 -112 R270
WINDOW 0 32 56 VTop 2
WINDOW 3 5 56 VBottom 2
SYMATTR InstName L1
SYMATTR Value 10µ
SYMATTR SpiceLine Rser=182m
SYMBOL ind 160 432 R270
WINDOW 0 32 56 VTop 2
WINDOW 3 5 56 VBottom 2
SYMATTR InstName L2
SYMATTR Value 10µ
SYMBOL ind 432 432 R270
WINDOW 0 32 56 VTop 2
WINDOW 3 5 56 VBottom 2
SYMATTR InstName L3
SYMATTR Value 10µ
SYMBOL schottky 288 -112 R270
WINDOW 0 32 32 VTop 2
WINDOW 3 0 32 VBottom 2
SYMATTR InstName D1
SYMATTR Value PMEG2005AEA
SYMATTR Description Diode
SYMATTR Type diode
SYMBOL cap 416 -80 R0
SYMATTR InstName C1
SYMATTR Value 56p
SYMBOL res 496 -96 R0
SYMATTR InstName R1
SYMATTR Value 110k
SYMBOL res 672 0 R90
WINDOW 0 0 56 VBottom 2
WINDOW 3 32 56 VTop 2
SYMATTR InstName R2
SYMATTR Value 10k
SYMBOL cap 672 -80 R0
SYMATTR InstName C2
SYMATTR Value 4.7µ
SYMATTR SpiceLine Rser=10m
SYMBOL cap 368 400 R90
WINDOW 0 0 32 VBottom 2
WINDOW 3 32 32 VTop 2
SYMATTR InstName C3
SYMATTR Value 1µ
SYMBOL schottky 432 448 M0
SYMATTR InstName D2
SYMATTR Value PMEG2005AEA
SYMATTR Description Diode
SYMATTR Type diode
SYMBOL cap 544 448 R0
SYMATTR InstName C4
SYMATTR Value 4.7µ
SYMBOL cap 544 208 R180
WINDOW 0 24 56 Left 2
WINDOW 3 24 8 Left 2
SYMATTR InstName C5
SYMATTR Value 100n
SYMBOL res 640 144 R0
SYMATTR InstName R3
SYMATTR Value 10k
SYMBOL res 640 288 R0
SYMATTR InstName R4
SYMATTR Value 120k
SYMBOL cap 576 320 R0
SYMATTR InstName C6
SYMATTR Value 56p
SYMBOL voltage -224 432 R0
WINDOW 123 0 0 Left 2
WINDOW 39 0 0 Left 2
SYMATTR InstName V1
SYMATTR Value 7
SYMBOL cap -320 192 R0
SYMATTR InstName C7
SYMATTR Value 4.7µ
SYMBOL res 880 -112 R0
SYMATTR InstName R5
SYMATTR Value 2.4k
SYMBOL res 880 416 R0
SYMATTR InstName R6
SYMATTR Value 2.4k
SYMBOL res 736 -112 R270
WINDOW 0 32 56 VTop 2
WINDOW 3 0 56 VBottom 2
SYMATTR InstName RTEST
SYMATTR Value 1µ
SYMBOL res -96 256 R90
WINDOW 0 0 56 VBottom 2
WINDOW 3 32 56 VTop 2
SYMATTR InstName R7
SYMATTR Value 10k
SYMBOL cap -112 288 R0
SYMATTR InstName C8
SYMATTR Value 0.1µ
SYMBOL load 992 96 R0
WINDOW 123 0 0 Left 2
WINDOW 39 0 0 Left 2
SYMATTR InstName I1
SYMATTR Value PWL(0 0 1m 0 1.001m 250m)
TEXT -50 584 Left 2 !.tran 2.5m
TEXT -56 392 Left 2 !.ic V(SHDN)=0
