Version 4
SHEET 1 972 680
WIRE -192 48 -224 48
WIRE -96 48 -112 48
WIRE 80 48 -16 48
WIRE 208 48 80 48
WIRE 448 48 208 48
WIRE 80 80 80 48
WIRE 208 80 208 48
WIRE 80 176 80 160
WIRE 208 192 208 160
WIRE -224 208 -224 48
WIRE 448 208 448 48
WIRE 80 288 80 256
WIRE 208 288 208 272
WIRE -224 368 -224 288
WIRE 80 368 80 352
WIRE 80 368 -224 368
WIRE 208 368 208 352
WIRE 208 368 80 368
WIRE 448 368 448 272
WIRE 448 368 208 368
WIRE -224 384 -224 368
FLAG -224 384 0
SYMBOL ind -208 64 R270
WINDOW 0 32 56 VTop 2
WINDOW 3 5 56 VBottom 2
SYMATTR InstName L1
SYMATTR Value 20n
SYMBOL res 0 32 R90
WINDOW 0 0 56 VBottom 2
WINDOW 3 32 56 VTop 2
SYMATTR InstName R1
SYMATTR Value 1m
SYMBOL load 432 208 R0
WINDOW 123 0 0 Left 2
WINDOW 39 0 0 Left 2
SYMATTR InstName I1
SYMATTR Value PULSE(0 50 0 50n 50n {0.5/fsw} {0.5/fsw})
SYMBOL voltage -224 192 R0
WINDOW 123 0 0 Left 2
WINDOW 39 0 0 Left 2
SYMATTR InstName V1
SYMATTR Value 48
SYMBOL cap 64 288 R0
SYMATTR InstName C1
SYMATTR Value 1000µ
SYMBOL res 64 160 R0
SYMATTR InstName R2
SYMATTR Value 150m
SYMBOL ind 64 64 R0
SYMATTR InstName L2
SYMATTR Value 15n
SYMBOL cap 192 288 R0
SYMATTR InstName C2
SYMATTR Value 9.4µ
SYMBOL res 192 176 R0
SYMATTR InstName R3
SYMATTR Value 1.5m
SYMBOL ind 192 64 R0
SYMATTR InstName L3
SYMATTR Value 150p
TEXT 480 304 Left 2 !.param fsw=20e3
TEXT 480 336 Left 2 !.tran 100u
